*SPEF "ieee 1481-1999"
*DESIGN "iiitb_pwm_gen"
*DATE "11:11:11 Fri 11 11, 1111"
*VENDOR "OpenRCX"
*PROGRAM "Parallel Extraction"
*VERSION "1.0"
*DESIGN_FLOW "NAME_SCOPE LOCAL" "PIN_CAP NONE"
*DIVIDER /
*DELIMITER :
*BUS_DELIMITER []
*T_UNIT 1 NS
*C_UNIT 1 PF
*R_UNIT 1 OHM
*L_UNIT 1 HENRY

*NAME_MAP
*1 PWM_OUT
*4 clk
*5 decrease_duty
*6 increase_duty
*7 reset
*8 DUTY_CYCLE\[0\]
*9 DUTY_CYCLE\[1\]
*10 DUTY_CYCLE\[2\]
*11 DUTY_CYCLE\[3\]
*12 _000_
*13 _001_
*14 _002_
*15 _003_
*16 _004_
*17 _032_
*18 _033_
*19 _034_
*20 _035_
*21 _036_
*22 _037_
*23 _038_
*24 _039_
*25 _040_
*26 _041_
*27 _042_
*28 _043_
*29 _044_
*30 _045_
*31 _046_
*32 _047_
*33 _048_
*34 _049_
*35 _050_
*36 _051_
*37 _052_
*38 _053_
*39 _054_
*40 _055_
*41 _056_
*42 _057_
*43 _058_
*44 _059_
*45 _060_
*46 _061_
*47 _062_
*48 _063_
*49 _064_
*50 _065_
*51 _066_
*52 _067_
*53 _068_
*54 _069_
*55 _070_
*56 _071_
*57 _072_
*58 _073_
*59 _074_
*60 _075_
*61 _076_
*62 _077_
*63 _078_
*64 _079_
*65 _080_
*66 _081_
*67 _082_
*68 _083_
*69 _084_
*70 _085_
*71 _086_
*72 _087_
*73 _088_
*74 _089_
*75 _090_
*76 _091_
*77 _092_
*78 _093_
*79 _094_
*80 _095_
*81 _096_
*82 _097_
*83 _098_
*84 _099_
*85 _100_
*86 _101_
*87 _102_
*88 _103_
*89 _104_
*90 _105_
*91 _106_
*92 _107_
*93 _108_
*94 _109_
*95 _110_
*96 _111_
*97 _112_
*98 _113_
*99 _114_
*100 _115_
*101 _116_
*102 _117_
*103 _118_
*104 _119_
*105 _120_
*106 _121_
*107 _122_
*108 _123_
*109 _124_
*110 _125_
*111 _126_
*112 _127_
*113 _128_
*114 _129_
*115 _130_
*116 _131_
*117 _132_
*118 _133_
*119 _134_
*120 _135_
*121 _136_
*122 _137_
*123 clknet_0_clk
*124 clknet_2_0__leaf_clk
*125 clknet_2_1__leaf_clk
*126 clknet_2_2__leaf_clk
*127 clknet_2_3__leaf_clk
*128 counter_PWM\[0\]
*129 counter_PWM\[1\]
*130 counter_PWM\[2\]
*131 counter_PWM\[3\]
*132 counter_debounce\[0\]
*133 counter_debounce\[10\]
*134 counter_debounce\[11\]
*135 counter_debounce\[12\]
*136 counter_debounce\[13\]
*137 counter_debounce\[14\]
*138 counter_debounce\[15\]
*139 counter_debounce\[16\]
*140 counter_debounce\[17\]
*141 counter_debounce\[18\]
*142 counter_debounce\[19\]
*143 counter_debounce\[1\]
*144 counter_debounce\[20\]
*145 counter_debounce\[21\]
*146 counter_debounce\[22\]
*147 counter_debounce\[23\]
*148 counter_debounce\[24\]
*149 counter_debounce\[25\]
*150 counter_debounce\[26\]
*151 counter_debounce\[27\]
*152 counter_debounce\[2\]
*153 counter_debounce\[3\]
*154 counter_debounce\[4\]
*155 counter_debounce\[5\]
*156 counter_debounce\[6\]
*157 counter_debounce\[7\]
*158 counter_debounce\[8\]
*159 counter_debounce\[9\]
*160 net1
*161 net10
*162 net11
*163 net12
*164 net13
*165 net14
*166 net15
*167 net16
*168 net17
*169 net18
*170 net19
*171 net2
*172 net20
*173 net21
*174 net22
*175 net23
*176 net24
*177 net25
*178 net26
*179 net27
*180 net28
*181 net29
*182 net3
*183 net30
*184 net31
*185 net4
*186 net5
*187 net6
*188 net7
*189 net8
*190 net9
*191 tmp1
*192 tmp2
*193 tmp3
*194 tmp4
*195 ANTENNA_1
*196 FILLER_0_107
*197 FILLER_0_111
*198 FILLER_0_113
*199 FILLER_0_125
*200 FILLER_0_137
*201 FILLER_0_141
*202 FILLER_0_153
*203 FILLER_0_165
*204 FILLER_0_169
*205 FILLER_0_174
*206 FILLER_0_186
*207 FILLER_0_194
*208 FILLER_0_26
*209 FILLER_0_29
*210 FILLER_0_3
*211 FILLER_0_51
*212 FILLER_0_55
*213 FILLER_0_57
*214 FILLER_0_79
*215 FILLER_0_83
*216 FILLER_0_85
*217 FILLER_10_107
*218 FILLER_10_119
*219 FILLER_10_131
*220 FILLER_10_139
*221 FILLER_10_141
*222 FILLER_10_153
*223 FILLER_10_165
*224 FILLER_10_177
*225 FILLER_10_189
*226 FILLER_10_195
*227 FILLER_10_25
*228 FILLER_10_29
*229 FILLER_10_3
*230 FILLER_10_34
*231 FILLER_10_41
*232 FILLER_10_53
*233 FILLER_10_75
*234 FILLER_10_83
*235 FILLER_10_85
*236 FILLER_11_110
*237 FILLER_11_113
*238 FILLER_11_125
*239 FILLER_11_137
*240 FILLER_11_149
*241 FILLER_11_15
*242 FILLER_11_161
*243 FILLER_11_167
*244 FILLER_11_169
*245 FILLER_11_181
*246 FILLER_11_193
*247 FILLER_11_3
*248 FILLER_11_37
*249 FILLER_11_49
*250 FILLER_11_55
*251 FILLER_11_57
*252 FILLER_11_69
*253 FILLER_11_81
*254 FILLER_12_107
*255 FILLER_12_119
*256 FILLER_12_131
*257 FILLER_12_139
*258 FILLER_12_141
*259 FILLER_12_153
*260 FILLER_12_165
*261 FILLER_12_177
*262 FILLER_12_189
*263 FILLER_12_195
*264 FILLER_12_25
*265 FILLER_12_29
*266 FILLER_12_3
*267 FILLER_12_41
*268 FILLER_12_46
*269 FILLER_12_52
*270 FILLER_12_73
*271 FILLER_12_81
*272 FILLER_12_85
*273 FILLER_13_110
*274 FILLER_13_113
*275 FILLER_13_12
*276 FILLER_13_125
*277 FILLER_13_137
*278 FILLER_13_149
*279 FILLER_13_161
*280 FILLER_13_167
*281 FILLER_13_169
*282 FILLER_13_181
*283 FILLER_13_193
*284 FILLER_13_20
*285 FILLER_13_26
*286 FILLER_13_3
*287 FILLER_13_54
*288 FILLER_13_57
*289 FILLER_13_62
*290 FILLER_13_74
*291 FILLER_13_98
*292 FILLER_14_107
*293 FILLER_14_119
*294 FILLER_14_131
*295 FILLER_14_139
*296 FILLER_14_141
*297 FILLER_14_153
*298 FILLER_14_165
*299 FILLER_14_177
*300 FILLER_14_189
*301 FILLER_14_195
*302 FILLER_14_26
*303 FILLER_14_29
*304 FILLER_14_3
*305 FILLER_14_35
*306 FILLER_14_56
*307 FILLER_14_80
*308 FILLER_14_85
*309 FILLER_15_111
*310 FILLER_15_113
*311 FILLER_15_125
*312 FILLER_15_137
*313 FILLER_15_149
*314 FILLER_15_15
*315 FILLER_15_161
*316 FILLER_15_167
*317 FILLER_15_169
*318 FILLER_15_181
*319 FILLER_15_19
*320 FILLER_15_193
*321 FILLER_15_3
*322 FILLER_15_40
*323 FILLER_15_52
*324 FILLER_15_57
*325 FILLER_15_69
*326 FILLER_15_80
*327 FILLER_15_88
*328 FILLER_15_94
*329 FILLER_15_99
*330 FILLER_16_102
*331 FILLER_16_114
*332 FILLER_16_126
*333 FILLER_16_138
*334 FILLER_16_141
*335 FILLER_16_15
*336 FILLER_16_153
*337 FILLER_16_165
*338 FILLER_16_177
*339 FILLER_16_189
*340 FILLER_16_195
*341 FILLER_16_27
*342 FILLER_16_29
*343 FILLER_16_3
*344 FILLER_16_34
*345 FILLER_16_46
*346 FILLER_16_58
*347 FILLER_16_70
*348 FILLER_16_82
*349 FILLER_16_85
*350 FILLER_16_90
*351 FILLER_17_104
*352 FILLER_17_113
*353 FILLER_17_125
*354 FILLER_17_137
*355 FILLER_17_149
*356 FILLER_17_15
*357 FILLER_17_161
*358 FILLER_17_167
*359 FILLER_17_169
*360 FILLER_17_181
*361 FILLER_17_193
*362 FILLER_17_27
*363 FILLER_17_3
*364 FILLER_17_39
*365 FILLER_17_46
*366 FILLER_17_50
*367 FILLER_17_54
*368 FILLER_17_57
*369 FILLER_17_68
*370 FILLER_17_80
*371 FILLER_17_92
*372 FILLER_18_109
*373 FILLER_18_121
*374 FILLER_18_133
*375 FILLER_18_139
*376 FILLER_18_141
*377 FILLER_18_15
*378 FILLER_18_153
*379 FILLER_18_165
*380 FILLER_18_177
*381 FILLER_18_189
*382 FILLER_18_195
*383 FILLER_18_27
*384 FILLER_18_29
*385 FILLER_18_3
*386 FILLER_18_42
*387 FILLER_18_48
*388 FILLER_18_56
*389 FILLER_18_68
*390 FILLER_18_80
*391 FILLER_18_85
*392 FILLER_18_97
*393 FILLER_19_108
*394 FILLER_19_113
*395 FILLER_19_125
*396 FILLER_19_137
*397 FILLER_19_149
*398 FILLER_19_161
*399 FILLER_19_167
*400 FILLER_19_169
*401 FILLER_19_181
*402 FILLER_19_193
*403 FILLER_19_22
*404 FILLER_19_3
*405 FILLER_19_35
*406 FILLER_19_43
*407 FILLER_19_52
*408 FILLER_19_57
*409 FILLER_19_65
*410 FILLER_19_72
*411 FILLER_19_84
*412 FILLER_19_9
*413 FILLER_19_96
*414 FILLER_1_103
*415 FILLER_1_11
*416 FILLER_1_110
*417 FILLER_1_113
*418 FILLER_1_125
*419 FILLER_1_137
*420 FILLER_1_145
*421 FILLER_1_160
*422 FILLER_1_169
*423 FILLER_1_17
*424 FILLER_1_174
*425 FILLER_1_186
*426 FILLER_1_194
*427 FILLER_1_3
*428 FILLER_1_38
*429 FILLER_1_50
*430 FILLER_1_54
*431 FILLER_1_57
*432 FILLER_1_7
*433 FILLER_1_79
*434 FILLER_20_109
*435 FILLER_20_11
*436 FILLER_20_121
*437 FILLER_20_133
*438 FILLER_20_139
*439 FILLER_20_141
*440 FILLER_20_15
*441 FILLER_20_153
*442 FILLER_20_165
*443 FILLER_20_177
*444 FILLER_20_189
*445 FILLER_20_195
*446 FILLER_20_26
*447 FILLER_20_29
*448 FILLER_20_3
*449 FILLER_20_35
*450 FILLER_20_45
*451 FILLER_20_56
*452 FILLER_20_68
*453 FILLER_20_7
*454 FILLER_20_74
*455 FILLER_20_81
*456 FILLER_20_85
*457 FILLER_20_97
*458 FILLER_21_109
*459 FILLER_21_113
*460 FILLER_21_125
*461 FILLER_21_137
*462 FILLER_21_149
*463 FILLER_21_15
*464 FILLER_21_161
*465 FILLER_21_167
*466 FILLER_21_169
*467 FILLER_21_181
*468 FILLER_21_189
*469 FILLER_21_195
*470 FILLER_21_26
*471 FILLER_21_3
*472 FILLER_21_33
*473 FILLER_21_43
*474 FILLER_21_55
*475 FILLER_21_57
*476 FILLER_21_62
*477 FILLER_21_74
*478 FILLER_21_85
*479 FILLER_21_97
*480 FILLER_22_109
*481 FILLER_22_115
*482 FILLER_22_120
*483 FILLER_22_132
*484 FILLER_22_141
*485 FILLER_22_15
*486 FILLER_22_153
*487 FILLER_22_165
*488 FILLER_22_177
*489 FILLER_22_189
*490 FILLER_22_195
*491 FILLER_22_23
*492 FILLER_22_27
*493 FILLER_22_29
*494 FILLER_22_3
*495 FILLER_22_37
*496 FILLER_22_41
*497 FILLER_22_45
*498 FILLER_22_57
*499 FILLER_22_68
*500 FILLER_22_81
*501 FILLER_22_85
*502 FILLER_22_97
*503 FILLER_23_107
*504 FILLER_23_11
*505 FILLER_23_111
*506 FILLER_23_113
*507 FILLER_23_125
*508 FILLER_23_137
*509 FILLER_23_149
*510 FILLER_23_161
*511 FILLER_23_167
*512 FILLER_23_169
*513 FILLER_23_181
*514 FILLER_23_19
*515 FILLER_23_193
*516 FILLER_23_25
*517 FILLER_23_3
*518 FILLER_23_34
*519 FILLER_23_49
*520 FILLER_23_55
*521 FILLER_23_57
*522 FILLER_23_69
*523 FILLER_23_77
*524 FILLER_23_85
*525 FILLER_23_95
*526 FILLER_24_107
*527 FILLER_24_119
*528 FILLER_24_131
*529 FILLER_24_139
*530 FILLER_24_141
*531 FILLER_24_15
*532 FILLER_24_153
*533 FILLER_24_165
*534 FILLER_24_177
*535 FILLER_24_189
*536 FILLER_24_195
*537 FILLER_24_27
*538 FILLER_24_29
*539 FILLER_24_3
*540 FILLER_24_36
*541 FILLER_24_42
*542 FILLER_24_50
*543 FILLER_24_62
*544 FILLER_24_70
*545 FILLER_24_82
*546 FILLER_24_85
*547 FILLER_24_95
*548 FILLER_25_100
*549 FILLER_25_113
*550 FILLER_25_125
*551 FILLER_25_137
*552 FILLER_25_149
*553 FILLER_25_15
*554 FILLER_25_161
*555 FILLER_25_167
*556 FILLER_25_169
*557 FILLER_25_181
*558 FILLER_25_193
*559 FILLER_25_27
*560 FILLER_25_3
*561 FILLER_25_39
*562 FILLER_25_50
*563 FILLER_25_57
*564 FILLER_25_65
*565 FILLER_25_76
*566 FILLER_25_88
*567 FILLER_26_109
*568 FILLER_26_121
*569 FILLER_26_133
*570 FILLER_26_139
*571 FILLER_26_141
*572 FILLER_26_15
*573 FILLER_26_153
*574 FILLER_26_165
*575 FILLER_26_177
*576 FILLER_26_189
*577 FILLER_26_195
*578 FILLER_26_27
*579 FILLER_26_29
*580 FILLER_26_3
*581 FILLER_26_41
*582 FILLER_26_54
*583 FILLER_26_64
*584 FILLER_26_77
*585 FILLER_26_83
*586 FILLER_26_85
*587 FILLER_26_97
*588 FILLER_27_107
*589 FILLER_27_111
*590 FILLER_27_113
*591 FILLER_27_125
*592 FILLER_27_137
*593 FILLER_27_149
*594 FILLER_27_15
*595 FILLER_27_161
*596 FILLER_27_167
*597 FILLER_27_169
*598 FILLER_27_181
*599 FILLER_27_193
*600 FILLER_27_27
*601 FILLER_27_3
*602 FILLER_27_31
*603 FILLER_27_35
*604 FILLER_27_43
*605 FILLER_27_52
*606 FILLER_27_57
*607 FILLER_27_63
*608 FILLER_27_67
*609 FILLER_27_74
*610 FILLER_27_83
*611 FILLER_27_95
*612 FILLER_28_109
*613 FILLER_28_121
*614 FILLER_28_133
*615 FILLER_28_139
*616 FILLER_28_141
*617 FILLER_28_15
*618 FILLER_28_153
*619 FILLER_28_165
*620 FILLER_28_177
*621 FILLER_28_189
*622 FILLER_28_195
*623 FILLER_28_27
*624 FILLER_28_29
*625 FILLER_28_3
*626 FILLER_28_41
*627 FILLER_28_47
*628 FILLER_28_52
*629 FILLER_28_64
*630 FILLER_28_76
*631 FILLER_28_85
*632 FILLER_28_97
*633 FILLER_29_105
*634 FILLER_29_111
*635 FILLER_29_113
*636 FILLER_29_125
*637 FILLER_29_137
*638 FILLER_29_149
*639 FILLER_29_161
*640 FILLER_29_167
*641 FILLER_29_169
*642 FILLER_29_181
*643 FILLER_29_193
*644 FILLER_29_21
*645 FILLER_29_3
*646 FILLER_29_33
*647 FILLER_29_45
*648 FILLER_29_53
*649 FILLER_29_57
*650 FILLER_29_69
*651 FILLER_29_81
*652 FILLER_29_9
*653 FILLER_29_93
*654 FILLER_2_110
*655 FILLER_2_114
*656 FILLER_2_121
*657 FILLER_2_133
*658 FILLER_2_139
*659 FILLER_2_141
*660 FILLER_2_147
*661 FILLER_2_154
*662 FILLER_2_161
*663 FILLER_2_173
*664 FILLER_2_185
*665 FILLER_2_193
*666 FILLER_2_26
*667 FILLER_2_29
*668 FILLER_2_3
*669 FILLER_2_34
*670 FILLER_2_58
*671 FILLER_2_82
*672 FILLER_2_85
*673 FILLER_2_89
*674 FILLER_30_109
*675 FILLER_30_121
*676 FILLER_30_133
*677 FILLER_30_139
*678 FILLER_30_141
*679 FILLER_30_15
*680 FILLER_30_153
*681 FILLER_30_165
*682 FILLER_30_177
*683 FILLER_30_189
*684 FILLER_30_195
*685 FILLER_30_27
*686 FILLER_30_29
*687 FILLER_30_3
*688 FILLER_30_41
*689 FILLER_30_53
*690 FILLER_30_65
*691 FILLER_30_77
*692 FILLER_30_83
*693 FILLER_30_85
*694 FILLER_30_97
*695 FILLER_31_105
*696 FILLER_31_111
*697 FILLER_31_113
*698 FILLER_31_125
*699 FILLER_31_137
*700 FILLER_31_149
*701 FILLER_31_15
*702 FILLER_31_161
*703 FILLER_31_167
*704 FILLER_31_169
*705 FILLER_31_181
*706 FILLER_31_193
*707 FILLER_31_27
*708 FILLER_31_3
*709 FILLER_31_39
*710 FILLER_31_51
*711 FILLER_31_55
*712 FILLER_31_57
*713 FILLER_31_69
*714 FILLER_31_81
*715 FILLER_31_93
*716 FILLER_32_109
*717 FILLER_32_113
*718 FILLER_32_118
*719 FILLER_32_130
*720 FILLER_32_138
*721 FILLER_32_141
*722 FILLER_32_15
*723 FILLER_32_153
*724 FILLER_32_165
*725 FILLER_32_169
*726 FILLER_32_181
*727 FILLER_32_193
*728 FILLER_32_27
*729 FILLER_32_29
*730 FILLER_32_3
*731 FILLER_32_41
*732 FILLER_32_53
*733 FILLER_32_57
*734 FILLER_32_69
*735 FILLER_32_81
*736 FILLER_32_85
*737 FILLER_32_97
*738 FILLER_3_110
*739 FILLER_3_113
*740 FILLER_3_125
*741 FILLER_3_137
*742 FILLER_3_149
*743 FILLER_3_154
*744 FILLER_3_16
*745 FILLER_3_166
*746 FILLER_3_169
*747 FILLER_3_181
*748 FILLER_3_193
*749 FILLER_3_3
*750 FILLER_3_40
*751 FILLER_3_47
*752 FILLER_3_54
*753 FILLER_3_57
*754 FILLER_3_65
*755 FILLER_3_86
*756 FILLER_3_9
*757 FILLER_4_100
*758 FILLER_4_117
*759 FILLER_4_123
*760 FILLER_4_130
*761 FILLER_4_138
*762 FILLER_4_141
*763 FILLER_4_153
*764 FILLER_4_165
*765 FILLER_4_177
*766 FILLER_4_189
*767 FILLER_4_195
*768 FILLER_4_26
*769 FILLER_4_29
*770 FILLER_4_3
*771 FILLER_4_34
*772 FILLER_4_60
*773 FILLER_4_64
*774 FILLER_4_68
*775 FILLER_4_75
*776 FILLER_4_82
*777 FILLER_4_85
*778 FILLER_4_89
*779 FILLER_4_93
*780 FILLER_5_110
*781 FILLER_5_113
*782 FILLER_5_125
*783 FILLER_5_135
*784 FILLER_5_147
*785 FILLER_5_159
*786 FILLER_5_167
*787 FILLER_5_169
*788 FILLER_5_181
*789 FILLER_5_193
*790 FILLER_5_25
*791 FILLER_5_3
*792 FILLER_5_33
*793 FILLER_5_54
*794 FILLER_5_57
*795 FILLER_5_65
*796 FILLER_5_86
*797 FILLER_5_98
*798 FILLER_6_108
*799 FILLER_6_120
*800 FILLER_6_132
*801 FILLER_6_141
*802 FILLER_6_153
*803 FILLER_6_165
*804 FILLER_6_177
*805 FILLER_6_189
*806 FILLER_6_195
*807 FILLER_6_25
*808 FILLER_6_29
*809 FILLER_6_3
*810 FILLER_6_34
*811 FILLER_6_42
*812 FILLER_6_64
*813 FILLER_6_73
*814 FILLER_6_81
*815 FILLER_6_85
*816 FILLER_7_107
*817 FILLER_7_111
*818 FILLER_7_113
*819 FILLER_7_125
*820 FILLER_7_137
*821 FILLER_7_149
*822 FILLER_7_161
*823 FILLER_7_167
*824 FILLER_7_169
*825 FILLER_7_181
*826 FILLER_7_193
*827 FILLER_7_26
*828 FILLER_7_3
*829 FILLER_7_30
*830 FILLER_7_51
*831 FILLER_7_55
*832 FILLER_7_57
*833 FILLER_7_79
*834 FILLER_7_85
*835 FILLER_8_109
*836 FILLER_8_121
*837 FILLER_8_129
*838 FILLER_8_138
*839 FILLER_8_141
*840 FILLER_8_153
*841 FILLER_8_165
*842 FILLER_8_177
*843 FILLER_8_189
*844 FILLER_8_195
*845 FILLER_8_26
*846 FILLER_8_29
*847 FILLER_8_3
*848 FILLER_8_41
*849 FILLER_8_65
*850 FILLER_8_77
*851 FILLER_8_83
*852 FILLER_8_85
*853 FILLER_8_97
*854 FILLER_9_102
*855 FILLER_9_110
*856 FILLER_9_113
*857 FILLER_9_125
*858 FILLER_9_137
*859 FILLER_9_146
*860 FILLER_9_15
*861 FILLER_9_158
*862 FILLER_9_166
*863 FILLER_9_169
*864 FILLER_9_181
*865 FILLER_9_193
*866 FILLER_9_3
*867 FILLER_9_36
*868 FILLER_9_40
*869 FILLER_9_44
*870 FILLER_9_57
*871 FILLER_9_9
*872 FILLER_9_90
*873 PHY_0
*874 PHY_1
*875 PHY_10
*876 PHY_11
*877 PHY_12
*878 PHY_13
*879 PHY_14
*880 PHY_15
*881 PHY_16
*882 PHY_17
*883 PHY_18
*884 PHY_19
*885 PHY_2
*886 PHY_20
*887 PHY_21
*888 PHY_22
*889 PHY_23
*890 PHY_24
*891 PHY_25
*892 PHY_26
*893 PHY_27
*894 PHY_28
*895 PHY_29
*896 PHY_3
*897 PHY_30
*898 PHY_31
*899 PHY_32
*900 PHY_33
*901 PHY_34
*902 PHY_35
*903 PHY_36
*904 PHY_37
*905 PHY_38
*906 PHY_39
*907 PHY_4
*908 PHY_40
*909 PHY_41
*910 PHY_42
*911 PHY_43
*912 PHY_44
*913 PHY_45
*914 PHY_46
*915 PHY_47
*916 PHY_48
*917 PHY_49
*918 PHY_5
*919 PHY_50
*920 PHY_51
*921 PHY_52
*922 PHY_53
*923 PHY_54
*924 PHY_55
*925 PHY_56
*926 PHY_57
*927 PHY_58
*928 PHY_59
*929 PHY_6
*930 PHY_60
*931 PHY_61
*932 PHY_62
*933 PHY_63
*934 PHY_64
*935 PHY_65
*936 PHY_7
*937 PHY_8
*938 PHY_9
*939 TAP_100
*940 TAP_101
*941 TAP_102
*942 TAP_103
*943 TAP_104
*944 TAP_105
*945 TAP_106
*946 TAP_107
*947 TAP_108
*948 TAP_109
*949 TAP_110
*950 TAP_111
*951 TAP_112
*952 TAP_113
*953 TAP_114
*954 TAP_115
*955 TAP_116
*956 TAP_117
*957 TAP_118
*958 TAP_119
*959 TAP_120
*960 TAP_121
*961 TAP_122
*962 TAP_123
*963 TAP_124
*964 TAP_125
*965 TAP_126
*966 TAP_127
*967 TAP_128
*968 TAP_129
*969 TAP_130
*970 TAP_131
*971 TAP_132
*972 TAP_133
*973 TAP_134
*974 TAP_135
*975 TAP_136
*976 TAP_137
*977 TAP_138
*978 TAP_139
*979 TAP_140
*980 TAP_141
*981 TAP_142
*982 TAP_143
*983 TAP_144
*984 TAP_145
*985 TAP_146
*986 TAP_147
*987 TAP_148
*988 TAP_149
*989 TAP_150
*990 TAP_151
*991 TAP_152
*992 TAP_153
*993 TAP_154
*994 TAP_155
*995 TAP_156
*996 TAP_157
*997 TAP_158
*998 TAP_159
*999 TAP_160
*1000 TAP_161
*1001 TAP_162
*1002 TAP_163
*1003 TAP_164
*1004 TAP_165
*1005 TAP_166
*1006 TAP_167
*1007 TAP_168
*1008 TAP_169
*1009 TAP_170
*1010 TAP_171
*1011 TAP_172
*1012 TAP_173
*1013 TAP_174
*1014 TAP_175
*1015 TAP_176
*1016 TAP_177
*1017 TAP_178
*1018 TAP_179
*1019 TAP_180
*1020 TAP_181
*1021 TAP_182
*1022 TAP_183
*1023 TAP_184
*1024 TAP_185
*1025 TAP_186
*1026 TAP_187
*1027 TAP_66
*1028 TAP_67
*1029 TAP_68
*1030 TAP_69
*1031 TAP_70
*1032 TAP_71
*1033 TAP_72
*1034 TAP_73
*1035 TAP_74
*1036 TAP_75
*1037 TAP_76
*1038 TAP_77
*1039 TAP_78
*1040 TAP_79
*1041 TAP_80
*1042 TAP_81
*1043 TAP_82
*1044 TAP_83
*1045 TAP_84
*1046 TAP_85
*1047 TAP_86
*1048 TAP_87
*1049 TAP_88
*1050 TAP_89
*1051 TAP_90
*1052 TAP_91
*1053 TAP_92
*1054 TAP_93
*1055 TAP_94
*1056 TAP_95
*1057 TAP_96
*1058 TAP_97
*1059 TAP_98
*1060 TAP_99
*1061 _139_
*1062 _140_
*1063 _141_
*1064 _142_
*1065 _143_
*1066 _144_
*1067 _145_
*1068 _146_
*1069 _147_
*1070 _148_
*1071 _149_
*1072 _150_
*1073 _151_
*1074 _152_
*1075 _153_
*1076 _154_
*1077 _155_
*1078 _156_
*1079 _157_
*1080 _159_
*1081 _160_
*1082 _161_
*1083 _162_
*1084 _163_
*1085 _164_
*1086 _165_
*1087 _166_
*1088 _168_
*1089 _173_
*1090 _174_
*1091 _175_
*1092 _176_
*1093 _177_
*1094 _178_
*1095 _179_
*1096 _180_
*1097 _181_
*1098 _182_
*1099 _183_
*1100 _184_
*1101 _185_
*1102 _186_
*1103 _187_
*1104 _188_
*1105 _189_
*1106 _190_
*1107 _191_
*1108 _192_
*1109 _193_
*1110 _194_
*1111 _195_
*1112 _196_
*1113 _197_
*1114 _198_
*1115 _199_
*1116 _200_
*1117 _201_
*1118 _202_
*1119 _203_
*1120 _204_
*1121 _205_
*1122 _206_
*1123 _217_
*1124 _228_
*1125 _239_
*1126 _250_
*1127 _251_
*1128 _252_
*1129 _253_
*1130 _254_
*1131 _255_
*1132 _255__31
*1133 _256_
*1134 _256__30
*1135 _257_
*1136 _257__29
*1137 _258_
*1138 _258__28
*1139 _259_
*1140 _259__27
*1141 _260_
*1142 _260__26
*1143 _261_
*1144 _261__25
*1145 _262_
*1146 _262__24
*1147 _263_
*1148 _263__23
*1149 _264_
*1150 _264__22
*1151 _265_
*1152 _265__21
*1153 _266_
*1154 _266__20
*1155 _267_
*1156 _267__19
*1157 _268_
*1158 _268__18
*1159 _269_
*1160 _269__17
*1161 _270_
*1162 _270__16
*1163 _271_
*1164 _271__15
*1165 _272_
*1166 _272__14
*1167 _273_
*1168 _273__13
*1169 _274_
*1170 _274__12
*1171 _275_
*1172 _275__11
*1173 _276_
*1174 _276__10
*1175 _277_
*1176 _277__9
*1177 _278_
*1178 _278__8
*1179 _279_
*1180 _279__7
*1181 _280_
*1182 _280__6
*1183 _281_
*1184 _281__5
*1185 _282_
*1186 _283_
*1187 _284_
*1188 _285_
*1189 _286_
*1190 _287_
*1191 _288_
*1192 _289_
*1193 clkbuf_0_clk
*1194 clkbuf_2_0__f_clk
*1195 clkbuf_2_1__f_clk
*1196 clkbuf_2_2__f_clk
*1197 clkbuf_2_3__f_clk
*1198 input1
*1199 input2
*1200 input3
*1201 output4

*PORTS
PWM_OUT O
clk I
decrease_duty I
increase_duty I
reset I

*D_NET *1 0.000641649
*CONN
*P PWM_OUT O
*I *1201:X O *D sky130_fd_sc_hd__buf_2
*CAP
1 PWM_OUT 0.000320825
2 *1201:X 0.000320825
*RES
1 *1201:X PWM_OUT 19.6254 
*END

*D_NET *4 0.00503394
*CONN
*P clk I
*I *1193:A I *D sky130_fd_sc_hd__clkbuf_16
*CAP
1 clk 0.00148706
2 *1193:A 0.00102991
3 *4:10 0.00251697
4 *1193:A *1129:D 0
5 *1193:A *1141:D 0
6 *1193:A *1149:CLK 0
7 *1193:A *1149:D 0
8 *1193:A *1185:D 0
9 *1193:A *1190:CLK 0
10 *1193:A *8:23 0
11 *1193:A *61:13 0
12 *1193:A *123:7 0
13 *1193:A *123:8 0
14 *1193:A *124:74 0
15 *1193:A *142:10 0
16 *1193:A *193:10 0
17 *1193:A *194:10 0
18 *1193:A *194:12 0
19 *4:10 *1147:D 0
20 *4:10 *159:17 0
*RES
1 clk *4:10 40.9107 
2 *4:10 *1193:A 36.3536 
*END

*D_NET *5 0.000535385
*CONN
*P decrease_duty I
*I *1198:A I *D sky130_fd_sc_hd__clkbuf_1
*CAP
1 decrease_duty 0.000267693
2 *1198:A 0.000267693
3 *1198:A *160:8 0
*RES
1 decrease_duty *1198:A 19.1777 
*END

*D_NET *6 0.00102076
*CONN
*P increase_duty I
*I *1199:A I *D sky130_fd_sc_hd__clkbuf_1
*CAP
1 increase_duty 0.000510378
2 *1199:A 0.000510378
*RES
1 increase_duty *1199:A 25.3893 
*END

*D_NET *7 0.000790739
*CONN
*P reset I
*I *1200:A I *D sky130_fd_sc_hd__clkbuf_1
*CAP
1 reset 0.000395369
2 *1200:A 0.000395369
*RES
1 reset *1200:A 22.6571 
*END

*D_NET *8 0.00665864
*CONN
*I *1083:A I *D sky130_fd_sc_hd__dlymetal6s2s_1
*I *1126:Q O *D sky130_fd_sc_hd__dfstp_1
*CAP
1 *1083:A 2.56688e-05
2 *1126:Q 0.00141736
3 *8:30 0.00191196
4 *8:23 0.00330365
5 *1083:A *1103:A 0
6 *1083:A *88:16 0
7 *8:23 *1126:CLK 0
8 *8:23 *57:22 0
9 *8:23 *123:7 0
10 *8:23 *138:5 0
11 *8:23 *142:10 0
12 *8:30 *1078:A1 0
13 *8:30 *1080:A2 0
14 *8:30 *1087:A2 0
15 *8:30 *1137:D 0
16 *8:30 *14:10 0
17 *8:30 *69:26 0
18 *8:30 *76:44 0
19 *8:30 *76:55 0
20 *8:30 *87:8 0
21 *8:30 *89:14 0
22 *8:30 *191:12 0
23 *8:30 *194:12 0
24 *1193:A *8:23 0
*RES
1 *1126:Q *8:23 48.3446 
2 *8:23 *8:30 47.2857 
3 *8:30 *1083:A 14.3357 
*END

*D_NET *9 0.00739269
*CONN
*I *1086:B1 I *D sky130_fd_sc_hd__o31a_1
*I *1085:B I *D sky130_fd_sc_hd__or4_1
*I *1080:A2 I *D sky130_fd_sc_hd__o21a_1
*I *1101:A1 I *D sky130_fd_sc_hd__mux2_1
*I *1127:Q O *D sky130_fd_sc_hd__dfrtp_1
*CAP
1 *1086:B1 0.000102247
2 *1085:B 0.000165918
3 *1080:A2 0.00031483
4 *1101:A1 0.00012706
5 *1127:Q 0.00146625
6 *9:44 0.00114877
7 *9:17 0.00108132
8 *9:8 0.00298629
9 *1080:A2 *1087:A2 0
10 *1080:A2 *1097:A0 0
11 *1080:A2 *14:10 0
12 *1080:A2 *58:20 0
13 *1080:A2 *193:10 0
14 *1085:B *1086:A1 0
15 *1085:B *81:16 0
16 *1085:B *86:17 0
17 *1085:B *108:42 0
18 *1086:B1 *1086:A3 0
19 *1101:A1 *1097:A1 0
20 *1101:A1 *1097:S 0
21 *1101:A1 *102:13 0
22 *9:8 *1127:D 0
23 *9:8 *1128:D 0
24 *9:8 *10:15 0
25 *9:8 *134:11 0
26 *9:17 *1078:A0 0
27 *9:17 *1093:A 0
28 *9:17 *1097:A1 0
29 *9:17 *13:11 0
30 *9:17 *60:7 0
31 *9:17 *102:13 0
32 *9:44 *1082:B 0
33 *9:44 *1086:A3 0
34 *9:44 *1128:D 0
35 *9:44 *10:15 0
36 *9:44 *69:26 0
37 *9:44 *83:10 0
38 *9:44 *130:21 0
39 *9:44 *192:20 0
40 *8:30 *1080:A2 0
*RES
1 *1127:Q *9:8 45.5679 
2 *9:8 *9:17 27.0893 
3 *9:17 *1101:A1 11.8893 
4 *9:17 *1080:A2 34.2107 
5 *9:8 *9:44 24.2143 
6 *9:44 *1085:B 22.0679 
7 *9:44 *1086:B1 11.4964 
*END

*D_NET *10 0.00646838
*CONN
*I *1091:A I *D sky130_fd_sc_hd__and2_1
*I *1097:A1 I *D sky130_fd_sc_hd__mux2_1
*I *1080:A1 I *D sky130_fd_sc_hd__o21a_1
*I *1128:Q O *D sky130_fd_sc_hd__dfstp_1
*CAP
1 *1091:A 0.000216821
2 *1097:A1 0.000759654
3 *1080:A1 8.4707e-05
4 *1128:Q 0.000507814
5 *10:17 0.00108351
6 *10:15 0.00188201
7 *10:7 0.00193386
8 *1080:A1 *1080:B1 0
9 *1080:A1 *58:20 0
10 *1091:A *1070:C 0
11 *1091:A *1092:B1 0
12 *1091:A *11:10 0
13 *1091:A *15:8 0
14 *1091:A *112:8 0
15 *1097:A1 *1087:A1 0
16 *1097:A1 *1092:A2 0
17 *1097:A1 *1097:A0 0
18 *1097:A1 *1097:S 0
19 *1097:A1 *1101:A0 0
20 *1097:A1 *14:10 0
21 *1097:A1 *59:17 0
22 *10:7 *1066:C 0
23 *10:7 *1128:CLK 0
24 *10:7 *152:13 0
25 *10:15 *1077:A 0
26 *10:15 *1082:A 0
27 *10:15 *1128:D 0
28 *10:15 *11:10 0
29 *10:15 *15:8 0
30 *10:15 *58:20 0
31 *10:15 *62:8 0
32 *10:15 *127:17 0
33 *10:15 *130:8 0
34 *10:17 *1080:B1 0
35 *10:17 *58:20 0
36 *1101:A1 *1097:A1 0
37 *9:8 *10:15 0
38 *9:17 *1097:A1 0
39 *9:44 *10:15 0
*RES
1 *1128:Q *10:7 24.3982 
2 *10:7 *10:15 36.8036 
3 *10:15 *10:17 5.05357 
4 *10:17 *1080:A1 11.0679 
5 *10:17 *1097:A1 34.425 
6 *10:15 *1091:A 23.0321 
*END

*D_NET *11 0.00539372
*CONN
*I *1082:A I *D sky130_fd_sc_hd__xnor2_1
*I *1080:B1 I *D sky130_fd_sc_hd__o21a_1
*I *1129:Q O *D sky130_fd_sc_hd__dfrtp_1
*CAP
1 *1082:A 0.000479151
2 *1080:B1 0.000424818
3 *1129:Q 8.4707e-05
4 *11:10 0.00261215
5 *11:7 0.00179289
6 *1080:B1 *58:20 0
7 *1082:A *1082:B 0
8 *1082:A *1111:A1 0
9 *1082:A *1113:A 0
10 *1082:A *58:20 0
11 *1082:A *108:19 0
12 *11:7 *139:13 0
13 *11:10 *1076:A0 0
14 *11:10 *1092:B1 0
15 *11:10 *1106:A 0
16 *11:10 *1188:CLK 0
17 *11:10 *15:8 0
18 *11:10 *16:10 0
19 *11:10 *61:13 0
20 *11:10 *62:8 0
21 *11:10 *64:23 0
22 *11:10 *89:14 0
23 *11:10 *125:49 0
24 *11:10 *127:17 0
25 *11:10 *127:29 0
26 *11:10 *152:13 0
27 *1080:A1 *1080:B1 0
28 *1091:A *11:10 0
29 *10:15 *1082:A 0
30 *10:15 *11:10 0
31 *10:17 *1080:B1 0
*RES
1 *1129:Q *11:7 15.5679 
2 *11:7 *11:10 43.1786 
3 *11:10 *1080:B1 18.2286 
4 *11:10 *1082:A 19.3 
*END

*D_NET *12 0.00312204
*CONN
*I *1188:D I *D sky130_fd_sc_hd__dfrtp_1
*I *1108:Y O *D sky130_fd_sc_hd__nor2_1
*CAP
1 *1188:D 0.000260324
2 *1108:Y 0.0013007
3 *12:13 0.00156102
4 *1188:D *1188:CLK 0
5 *1188:D *144:15 0
6 *12:13 *1089:B1 0
7 *12:13 *1108:A 0
8 *12:13 *1189:CLK 0
9 *12:13 *13:11 0
10 *12:13 *63:7 0
11 *12:13 *64:8 0
12 *12:13 *126:70 0
13 *12:13 *144:15 0
*RES
1 *1108:Y *12:13 46.7821 
2 *12:13 *1188:D 14.7643 
*END

*D_NET *13 0.00278839
*CONN
*I *1189:D I *D sky130_fd_sc_hd__dfrtp_1
*I *1110:X O *D sky130_fd_sc_hd__o21a_1
*CAP
1 *1189:D 0
2 *1110:X 0.0013942
3 *13:11 0.0013942
4 *13:11 *1076:A0 0
5 *13:11 *1087:A1 0
6 *13:11 *1097:A0 0
7 *13:11 *14:10 0
8 *13:11 *61:13 0
9 *13:11 *144:15 0
10 *13:11 *160:9 0
11 *9:17 *13:11 0
12 *12:13 *13:11 0
*RES
1 *1110:X *13:11 48.6393 
2 *13:11 *1189:D 9.3 
*END

*D_NET *14 0.00429074
*CONN
*I *1190:D I *D sky130_fd_sc_hd__dfrtp_2
*I *1113:Y O *D sky130_fd_sc_hd__nor2_1
*CAP
1 *1190:D 0.000657616
2 *1113:Y 0.00148775
3 *14:10 0.00214537
4 *1190:D *61:13 0
5 *1190:D *64:23 0
6 *1190:D *123:8 0
7 *1190:D *194:12 0
8 *14:10 *1087:A1 0
9 *14:10 *1113:A 0
10 *14:10 *61:13 0
11 *14:10 *69:26 0
12 *14:10 *85:20 0
13 *14:10 *194:12 0
14 *1080:A2 *14:10 0
15 *1097:A1 *14:10 0
16 *8:30 *14:10 0
17 *13:11 *14:10 0
*RES
1 *1113:Y *14:10 47.1839 
2 *14:10 *1190:D 28.6482 
*END

*D_NET *15 0.00424841
*CONN
*I *1191:D I *D sky130_fd_sc_hd__dfrtp_2
*I *1115:X O *D sky130_fd_sc_hd__clkbuf_1
*CAP
1 *1191:D 0.00063573
2 *1115:X 0.00148847
3 *15:8 0.0021242
4 *1191:D *1191:CLK 0
5 *1191:D *146:17 0
6 *1191:D *154:11 0
7 *15:8 *1070:C 0
8 *15:8 *1077:A 0
9 *15:8 *1082:B 0
10 *15:8 *1113:A 0
11 *15:8 *62:8 0
12 *1091:A *15:8 0
13 *10:15 *15:8 0
14 *11:10 *15:8 0
*RES
1 *1115:X *15:8 46.9429 
2 *15:8 *1191:D 27.0679 
*END

*D_NET *16 0.00226106
*CONN
*I *1130:D I *D sky130_fd_sc_hd__dfrtp_1
*I *1104:Y O *D sky130_fd_sc_hd__nor3_1
*CAP
1 *1130:D 0
2 *1104:Y 0.00113053
3 *16:10 0.00113053
4 *16:10 *59:17 0
5 *16:10 *62:8 0
6 *16:10 *69:26 0
7 *11:10 *16:10 0
*RES
1 *1104:Y *16:10 43.6036 
2 *16:10 *1130:D 9.3 
*END

*D_NET *57 0.00628901
*CONN
*I *1126:D I *D sky130_fd_sc_hd__dfstp_1
*I *1103:Y O *D sky130_fd_sc_hd__xnor2_1
*CAP
1 *1126:D 0
2 *1103:Y 0.000508333
3 *57:22 0.0015092
4 *57:16 0.00263617
5 *57:8 0.00163531
6 *57:8 *1070:B 0
7 *57:8 *1074:S 0
8 *57:8 *1089:A3 0
9 *57:8 *1089:B1 0
10 *57:8 *1108:B 0
11 *57:8 *58:13 0
12 *57:8 *63:12 0
13 *57:16 *1131:CLK 0
14 *57:16 *1133:D 0
15 *57:16 *1169:D 0
16 *57:16 *63:12 0
17 *57:22 *1159:D 0
18 *57:22 *138:5 0
19 *8:23 *57:22 0
*RES
1 *1103:Y *57:8 25.3446 
2 *57:8 *57:16 30.2232 
3 *57:16 *57:22 40.7321 
4 *57:22 *1126:D 9.3 
*END

*D_NET *58 0.00530977
*CONN
*I *1127:D I *D sky130_fd_sc_hd__dfrtp_1
*I *1102:X O *D sky130_fd_sc_hd__clkbuf_1
*CAP
1 *1127:D 0.000202783
2 *1102:X 0.000662127
3 *58:20 0.00199276
4 *58:13 0.0024521
5 *1127:D *134:11 0
6 *58:13 *1074:S 0
7 *58:13 *1102:A 0
8 *58:13 *63:12 0
9 *58:20 *1082:B 0
10 *58:20 *1093:A 0
11 *58:20 *1105:A 0
12 *58:20 *1135:CLK 0
13 *58:20 *1135:D 0
14 *58:20 *1175:D 0
15 *58:20 *76:37 0
16 *58:20 *107:11 0
17 *58:20 *107:18 0
18 *58:20 *132:10 0
19 *1080:A1 *58:20 0
20 *1080:A2 *58:20 0
21 *1080:B1 *58:20 0
22 *1082:A *58:20 0
23 *9:8 *1127:D 0
24 *10:15 *58:20 0
25 *10:17 *58:20 0
26 *57:8 *58:13 0
*RES
1 *1102:X *58:13 32.2286 
2 *58:13 *58:20 48.1607 
3 *58:20 *1127:D 13.5321 
*END

*D_NET *59 0.00494386
*CONN
*I *1128:D I *D sky130_fd_sc_hd__dfstp_1
*I *1098:X O *D sky130_fd_sc_hd__clkbuf_1
*CAP
1 *1128:D 0.00119363
2 *1098:X 0.00127831
3 *59:17 0.00247193
4 *1128:D *130:8 0
5 *1128:D *152:13 0
6 *1128:D *192:20 0
7 *59:17 *1092:B1 0
8 *59:17 *1093:B 0
9 *59:17 *1097:A0 0
10 *59:17 *1097:S 0
11 *59:17 *1098:A 0
12 *59:17 *69:26 0
13 *59:17 *102:11 0
14 *59:17 *102:13 0
15 *1097:A1 *59:17 0
16 *9:8 *1128:D 0
17 *9:44 *1128:D 0
18 *10:15 *1128:D 0
19 *16:10 *59:17 0
*RES
1 *1098:X *59:17 40.8179 
2 *59:17 *1128:D 49.6214 
*END

*D_NET *60 0.00349854
*CONN
*I *1129:D I *D sky130_fd_sc_hd__dfrtp_1
*I *1093:Y O *D sky130_fd_sc_hd__xnor2_1
*CAP
1 *1129:D 0.00140873
2 *1093:Y 0.000340539
3 *60:7 0.00174927
4 *1129:D *1078:A1 0
5 *1129:D *1087:A2 0
6 *1129:D *191:12 0
7 *1129:D *193:10 0
8 *60:7 *1078:A0 0
9 *60:7 *1078:S 0
10 *1193:A *1129:D 0
11 *9:17 *60:7 0
*RES
1 *1093:Y *60:7 20.9071 
2 *60:7 *1129:D 45.8 
*END

*D_NET *61 0.00400124
*CONN
*I *1185:D I *D sky130_fd_sc_hd__dfrtp_1
*I *1079:X O *D sky130_fd_sc_hd__clkbuf_1
*CAP
1 *1185:D 0.000751026
2 *1079:X 0.0012496
3 *61:13 0.00200062
4 *1185:D *191:12 0
5 *61:13 *1106:A 0
6 *61:13 *1188:CLK 0
7 *61:13 *76:44 0
8 *61:13 *127:29 0
9 *61:13 *142:10 0
10 *61:13 *152:13 0
11 *1190:D *61:13 0
12 *1193:A *1185:D 0
13 *1193:A *61:13 0
14 *11:10 *61:13 0
15 *13:11 *61:13 0
16 *14:10 *61:13 0
*RES
1 *1079:X *61:13 46.3714 
2 *61:13 *1185:D 25.0679 
*END

*D_NET *62 0.00352115
*CONN
*I *1186:D I *D sky130_fd_sc_hd__dfrtp_1
*I *1077:X O *D sky130_fd_sc_hd__clkbuf_1
*CAP
1 *1186:D 0.000619045
2 *1077:X 0.00114153
3 *62:8 0.00176057
4 *1186:D *127:24 0
5 *1186:D *127:62 0
6 *1186:D *132:10 0
7 *1186:D *192:10 0
8 *10:15 *62:8 0
9 *11:10 *62:8 0
10 *15:8 *62:8 0
11 *16:10 *62:8 0
*RES
1 *1077:X *62:8 44.2286 
2 *62:8 *1186:D 22.1571 
*END

*D_NET *63 0.00431278
*CONN